##CIF_1.1

data_sm_global
#Used dictionaries
loop_
_audit_conform_dict_name
_audit_conform_dict_version
_audit_conform_dict_location
cif_core.dic 	2.4.2 	.
cif_pd.dic 		1.0.1 	.
cif_sm.dic 		0.1 	'redaktion.landolt-boernstein(at)springer.com'

#About this content and reference
_sm_credits_copyright
;PAULING FILE Multinaries Edition - 2012. SpringerMaterials Release 2014.
http://www.paulingfile.com
Unique LPF ID Number SD1923917
Project Coordinator: Shuichi Iwata
Section-Editors: Karin Cenzual (Crystal Structures), Hiroaki Okamoto (Phase 
Diagrams), Fritz Hulliger (Physical Properties)
(c) Springer & Material Phases Data System (MPDS), Switzerland & National 
Institute for Materials Science (NIMS), Japan 2014.
(Data generated pre-2002: (c) Springer & MPDS & NIMS; 
post-2001: (c) Springer & MPDS)
All Rights Reserved. Version 2014.06.
;

_audit_creation_method
;This data have been compiled from the crystallographic datasheet for 
"h-BN (BN hex) Crystal Structure" 
taken from SpringerMaterials (sm_isp_sd_1923917).
;

_publ_section_references
;Zheng M., Gu Y., Xu Z., Liu Y.: <i>Synthesis and characterization of boron nitride nanoropes</i>. Materials Letters <b>61</b> (2007) 1943-1945.
;

#Phase classification
_sm_phase_labels				'BN hex'
_chemical_name_mineral			''
_sm_chemical_compound_class		'boronitride'
_sm_phase_prototype				'BN-b'
_sm_pearson_symbol				'hP4'
_symmetry_Int_Tables_number		194
_sm_sample_details
;sample prepared from CoCl<sub>2</sub>[H<sub>2</sub>O]<sub>6</sub>, KBH<sub>4</sub>, NH<sub>4</sub>Cl, 
energy-dispersive X-ray analysis, 
powder (determination of cell parameters)
;
_sm_measurement_details
;X-rays, Cu K&#x03b1;; &#x03bb; = 0.15406 nm (determination of cell parameters)
;
_sm_interpretation_details
;cell parameters determined and type with fixed coordinates assigned
;

data_sm_isp_SD1923917-standardized_unitcell
#Cell Parameters
_cell_length_a					2.504
_cell_length_b					2.504
_cell_length_c					6.784
_cell_angle_alpha				90
_cell_angle_beta				90
_cell_angle_gamma				120
_sm_length_ratio_ab				1.000
_sm_length_ratio_bc				0.369
_sm_length_ratio_ca				2.709
_cell_volume 					36.8
_symmetry_space_group_name_H-M	'P63/mmc'
_symmetry_Int_Tables_number		194
_cell_formula_units_Z			2
_sm_cell_transformation
;No transformation from published to standardized cell parameters necessary.
;

#Atom Coordinates
loop_
_atom_site_label
_atom_site_type_symbol
_atom_site_Wyckoff_symbol
_sm_site_symmetry
_atom_site_fract_x
_atom_site_fract_y
_atom_site_fract_z
_atom_site_occupancy
_sm_coordination_number
_sm_atomic_environment_type
N 'N' .2d .-6m2 0.333333333333333 0.666666666666667 0.75 1 3 'coplanar triangle, B<sub>3</sub>'
B 'B' .2c .-6m2 0.333333333333333 0.666666666666667 0.25 1 3 'coplanar triangle, N<sub>3</sub>'

_sm_atom_site_transformation
;No transformation from published to standardized cell parameters necessary.
;

data_sm_isp_SD1923917-published_cell
#Cell Parameters
_cell_length_a					2.504
_cell_length_b					2.504
_cell_length_c					6.784
_cell_angle_alpha				90
_cell_angle_beta				90
_cell_angle_gamma				120
_sm_length_ratio_ab				1.000
_sm_length_ratio_bc				0.369
_sm_length_ratio_ca				2.709
_cell_volume 					36.84
_symmetry_space_group_name_H-M	'P63/mmc'
_symmetry_Int_Tables_number		194
_cell_formula_units_Z			2

#Atom Coordinates
loop_
_atom_site_label
_atom_site_type_symbol
_atom_site_Wyckoff_symbol
_sm_site_symmetry
_atom_site_fract_x
_atom_site_fract_y
_atom_site_fract_z
_atom_site_occupancy
_sm_coordination_number
_sm_atomic_environment_type
B 'B' .2c .-6m2 0.333333333333333 0.666666666666667 0.25 1 ? '?'
N 'N' .2d .-6m2 0.333333333333333 0.666666666666667 0.75 1 ? '?'

data_sm_isp_SD1923917-niggli_reduced_cell
#Cell Parameters
_cell_length_a					2.504
_cell_length_b					2.504
_cell_length_c					6.784
_cell_angle_alpha				90
_cell_angle_beta				90
_cell_angle_gamma				120
_sm_length_ratio_ab				1.000
_sm_length_ratio_bc				0.369
_sm_length_ratio_ca				2.709
_cell_volume 					36.84
_symmetry_space_group_name_H-M	''
_symmetry_Int_Tables_number		?
_cell_formula_units_Z			2

#Atom Coordinates
loop_
_atom_site_label
_atom_site_type_symbol
_atom_site_Wyckoff_symbol
_sm_site_symmetry
_atom_site_fract_x
_atom_site_fract_y
_atom_site_fract_z
_atom_site_occupancy
_sm_coordination_number
_sm_atomic_environment_type
? ? ? ? ? ? ? ? ? ?

